*SPEF "ieee 1481-1999"
*DESIGN "spm"
*DATE "11:11:11 Fri 11 11, 1111"
*VENDOR "OpenRCX"
*PROGRAM "Parallel Extraction"
*VERSION "1.0"
*DESIGN_FLOW "NAME_SCOPE LOCAL" "PIN_CAP NONE"
*DIVIDER /
*DELIMITER :
*BUS_DELIMITER []
*T_UNIT 1 NS
*C_UNIT 1 PF
*R_UNIT 1 OHM
*L_UNIT 1 HENRY

*NAME_MAP
*1 _000_
*2 _001_
*3 _002_
*4 _003_
*5 _004_
*6 _005_
*7 _006_
*8 _007_
*9 _008_
*10 _009_
*11 _010_
*12 _011_
*13 _012_
*14 _013_
*15 _014_
*16 _015_
*17 _016_
*18 _017_
*19 _018_
*20 _019_
*21 _020_
*22 _021_
*23 _022_
*24 _023_
*25 _024_
*26 _025_
*27 _026_
*28 _027_
*29 _028_
*30 _029_
*31 _030_
*32 _031_
*33 _032_
*34 _033_
*35 _034_
*36 _035_
*37 _036_
*38 _037_
*39 _038_
*40 _039_
*41 _040_
*42 _041_
*43 _042_
*44 _043_
*45 _044_
*46 _045_
*47 _046_
*48 _047_
*49 _048_
*50 _049_
*51 _050_
*52 _051_
*53 _052_
*54 _053_
*55 _054_
*56 _055_
*57 _056_
*58 _057_
*59 _058_
*60 _059_
*61 _060_
*62 _061_
*63 _062_
*64 _063_
*65 _064_
*66 _065_
*67 _066_
*68 _067_
*69 _068_
*70 _069_
*71 _070_
*72 _071_
*73 _072_
*74 _073_
*75 _074_
*76 _075_
*77 _076_
*78 _077_
*79 _078_
*80 _079_
*81 _080_
*82 _081_
*83 _082_
*84 _083_
*85 _084_
*86 _085_
*87 _086_
*88 _087_
*89 _088_
*90 _089_
*91 _090_
*92 _091_
*93 _092_
*94 _093_
*95 _094_
*96 _095_
*97 _096_
*98 _097_
*99 _098_
*100 _099_
*101 _100_
*102 _101_
*103 _102_
*104 _103_
*105 _104_
*106 _105_
*107 _106_
*108 _107_
*109 _108_
*110 _109_
*111 _110_
*112 _111_
*113 _112_
*114 _113_
*115 _114_
*116 _115_
*117 _116_
*118 _117_
*119 _118_
*120 _119_
*121 _120_
*122 _121_
*123 _122_
*124 _123_
*125 _124_
*126 _125_
*127 _126_
*128 _127_
*129 _128_
*130 _129_
*131 _130_
*132 _131_
*133 _132_
*134 _133_
*135 _134_
*136 _135_
*137 _136_
*138 _137_
*139 _138_
*140 _139_
*141 _140_
*142 _141_
*143 _142_
*144 _143_
*145 _144_
*146 _145_
*147 _146_
*148 _147_
*149 _148_
*150 _149_
*151 _150_
*152 _151_
*153 _152_
*154 _153_
*155 _154_
*156 _155_
*157 _156_
*158 _157_
*159 _158_
*160 _159_
*161 _160_
*162 _161_
*163 _162_
*164 _163_
*165 _164_
*166 _165_
*167 _166_
*168 _167_
*169 _168_
*170 _169_
*171 _170_
*172 _171_
*173 _172_
*174 _173_
*175 _174_
*176 _175_
*177 _176_
*178 _177_
*179 _178_
*180 _179_
*181 _180_
*182 _181_
*183 _182_
*184 _183_
*185 _184_
*186 _185_
*187 _186_
*188 _187_
*189 _188_
*190 _189_
*191 _190_
*192 _191_
*193 clk
*194 csa0\.hsum2
*195 csa0\.sc
*196 csa0\.y
*197 genblk1\[10\]\.csa\.hsum2
*198 genblk1\[10\]\.csa\.sc
*199 genblk1\[10\]\.csa\.sum
*200 genblk1\[10\]\.csa\.y
*201 genblk1\[11\]\.csa\.hsum2
*202 genblk1\[11\]\.csa\.sc
*203 genblk1\[11\]\.csa\.y
*204 genblk1\[12\]\.csa\.hsum2
*205 genblk1\[12\]\.csa\.sc
*206 genblk1\[12\]\.csa\.y
*207 genblk1\[13\]\.csa\.hsum2
*208 genblk1\[13\]\.csa\.sc
*209 genblk1\[13\]\.csa\.y
*210 genblk1\[14\]\.csa\.hsum2
*211 genblk1\[14\]\.csa\.sc
*212 genblk1\[14\]\.csa\.y
*213 genblk1\[15\]\.csa\.hsum2
*214 genblk1\[15\]\.csa\.sc
*215 genblk1\[15\]\.csa\.y
*216 genblk1\[16\]\.csa\.hsum2
*217 genblk1\[16\]\.csa\.sc
*218 genblk1\[16\]\.csa\.y
*219 genblk1\[17\]\.csa\.hsum2
*220 genblk1\[17\]\.csa\.sc
*221 genblk1\[17\]\.csa\.y
*222 genblk1\[18\]\.csa\.hsum2
*223 genblk1\[18\]\.csa\.sc
*224 genblk1\[18\]\.csa\.y
*225 genblk1\[19\]\.csa\.hsum2
*226 genblk1\[19\]\.csa\.sc
*227 genblk1\[19\]\.csa\.y
*228 genblk1\[1\]\.csa\.hsum2
*229 genblk1\[1\]\.csa\.sc
*230 genblk1\[1\]\.csa\.y
*231 genblk1\[20\]\.csa\.hsum2
*232 genblk1\[20\]\.csa\.sc
*233 genblk1\[20\]\.csa\.y
*234 genblk1\[21\]\.csa\.hsum2
*235 genblk1\[21\]\.csa\.sc
*236 genblk1\[21\]\.csa\.y
*237 genblk1\[22\]\.csa\.hsum2
*238 genblk1\[22\]\.csa\.sc
*239 genblk1\[22\]\.csa\.y
*240 genblk1\[23\]\.csa\.hsum2
*241 genblk1\[23\]\.csa\.sc
*242 genblk1\[23\]\.csa\.y
*243 genblk1\[24\]\.csa\.hsum2
*244 genblk1\[24\]\.csa\.sc
*245 genblk1\[24\]\.csa\.y
*246 genblk1\[25\]\.csa\.hsum2
*247 genblk1\[25\]\.csa\.sc
*248 genblk1\[25\]\.csa\.y
*249 genblk1\[26\]\.csa\.hsum2
*250 genblk1\[26\]\.csa\.sc
*251 genblk1\[26\]\.csa\.y
*252 genblk1\[27\]\.csa\.hsum2
*253 genblk1\[27\]\.csa\.sc
*254 genblk1\[27\]\.csa\.y
*255 genblk1\[28\]\.csa\.hsum2
*256 genblk1\[28\]\.csa\.sc
*257 genblk1\[28\]\.csa\.y
*258 genblk1\[29\]\.csa\.hsum2
*259 genblk1\[29\]\.csa\.sc
*260 genblk1\[29\]\.csa\.y
*261 genblk1\[2\]\.csa\.hsum2
*262 genblk1\[2\]\.csa\.sc
*263 genblk1\[2\]\.csa\.y
*264 genblk1\[30\]\.csa\.hsum2
*265 genblk1\[30\]\.csa\.sc
*266 genblk1\[30\]\.csa\.y
*267 genblk1\[3\]\.csa\.hsum2
*268 genblk1\[3\]\.csa\.sc
*269 genblk1\[3\]\.csa\.y
*270 genblk1\[4\]\.csa\.hsum2
*271 genblk1\[4\]\.csa\.sc
*272 genblk1\[4\]\.csa\.y
*273 genblk1\[5\]\.csa\.hsum2
*274 genblk1\[5\]\.csa\.sc
*275 genblk1\[5\]\.csa\.y
*276 genblk1\[6\]\.csa\.hsum2
*277 genblk1\[6\]\.csa\.sc
*278 genblk1\[6\]\.csa\.y
*279 genblk1\[7\]\.csa\.hsum2
*280 genblk1\[7\]\.csa\.sc
*281 genblk1\[7\]\.csa\.y
*282 genblk1\[8\]\.csa\.hsum2
*283 genblk1\[8\]\.csa\.sc
*284 genblk1\[8\]\.csa\.y
*285 genblk1\[9\]\.csa\.hsum2
*286 genblk1\[9\]\.csa\.sc
*287 p
*288 rst
*289 tcmp\.z
*290 x[0]
*291 x[10]
*292 x[11]
*293 x[12]
*294 x[13]
*295 x[14]
*296 x[15]
*297 x[16]
*298 x[17]
*299 x[18]
*300 x[19]
*301 x[1]
*302 x[20]
*303 x[21]
*304 x[22]
*305 x[23]
*306 x[24]
*307 x[25]
*308 x[26]
*309 x[27]
*310 x[28]
*311 x[29]
*312 x[2]
*313 x[30]
*314 x[31]
*315 x[3]
*316 x[4]
*317 x[5]
*318 x[6]
*319 x[7]
*320 x[8]
*321 x[9]
*322 y
*325 net1
*326 net2
*327 net3
*328 net4
*329 net5
*330 net6
*331 net7
*332 net8
*333 net9
*334 net10
*335 net11
*336 net12
*337 net13
*338 net14
*339 net15
*340 net16
*341 net17
*342 net18
*343 net19
*344 net20
*345 net21
*346 net22
*347 net23
*348 net24
*349 net25
*350 net26
*351 net27
*352 net28
*353 net29
*354 net30
*355 net31
*356 net32
*357 net33
*358 net34
*359 net35
*360 net36
*361 net37
*362 net38
*363 net39
*364 net40
*365 net41
*366 net42
*367 net43
*368 net44
*369 net45
*370 net46
*371 net47
*372 net48
*373 net49
*374 net50
*375 net51
*376 net52
*377 clknet_0_clk
*378 clknet_3_0__leaf_clk
*379 clknet_3_1__leaf_clk
*380 clknet_3_2__leaf_clk
*381 clknet_3_3__leaf_clk
*382 clknet_3_4__leaf_clk
*383 clknet_3_5__leaf_clk
*384 clknet_3_6__leaf_clk
*385 clknet_3_7__leaf_clk
*386 _192_
*387 _193_
*388 _194_
*389 _195_
*390 _196_
*391 _197_
*392 _198_
*393 _199_
*394 _200_
*395 _201_
*396 _202_
*397 _203_
*398 _204_
*399 _205_
*400 _206_
*401 _207_
*402 _208_
*403 _209_
*404 _210_
*405 _211_
*406 _212_
*407 _213_
*408 _214_
*409 _215_
*410 _216_
*411 _217_
*412 _218_
*413 _219_
*414 _220_
*415 _221_
*416 _222_
*417 _223_
*418 _224_
*419 _225_
*420 _226_
*421 _227_
*422 _228_
*423 _229_
*424 _230_
*425 _231_
*426 _232_
*427 _233_
*428 _234_
*429 _235_
*430 _236_
*431 _237_
*432 _238_
*433 _239_
*434 _240_
*435 _241_
*436 _242_
*437 _243_
*438 _244_
*439 _245_
*440 _246_
*441 _247_
*442 _248_
*443 _249_
*444 _250_
*445 _251_
*446 _252_
*447 _253_
*448 _254_
*449 _255_
*450 _256_
*451 _257_
*452 _258_
*453 _259_
*454 _260_
*455 _261_
*456 _262_
*457 _263_
*458 _264_
*459 _265_
*460 _266_
*461 _267_
*462 _268_
*463 _269_
*464 _270_
*465 _271_
*466 _272_
*467 _273_
*468 _274_
*469 _275_
*470 _276_
*471 _277_
*472 _278_
*473 _279_
*474 _280_
*475 _281_
*476 _282_
*477 _283_
*478 _284_
*479 _285_
*480 _286_
*481 _287_
*482 _288_
*483 _289_
*484 _290_
*485 _291_
*486 _292_
*487 _293_
*488 _294_
*489 _295_
*490 _296_
*491 _297_
*492 _298_
*493 _299_
*494 _300_
*495 _301_
*496 _302_
*497 _303_
*498 _304_
*499 _305_
*500 _306_
*501 _307_
*502 _308_
*503 _309_
*504 _310_
*505 _311_
*506 _312_
*507 _313_
*508 _314_
*509 _315_
*510 _316_
*511 _317_
*512 _318_
*513 _319_
*514 _320_
*515 _321_
*516 _322_
*517 _323_
*518 _324_
*519 _325_
*520 _326_
*521 _327_
*522 _328_
*523 _329_
*524 _330_
*525 _331_
*526 _332_
*527 _333_
*528 _334_
*529 _335_
*530 _336_
*531 _337_
*532 _338_
*533 _339_
*534 _340_
*535 _341_
*536 _342_
*537 _343_
*538 _344_
*539 _345_
*540 _346_
*541 _347_
*542 _348_
*543 _349_
*544 _350_
*545 _351_
*546 _352_
*547 _353_
*548 _354_
*549 _355_
*550 _356_
*551 _357_
*552 _358_
*553 _359_
*554 _360_
*555 _361_
*556 _362_
*557 _363_
*558 _364_
*559 _365_
*560 _366_
*561 _367_
*562 _368_
*563 _369_
*564 _370_
*565 _371_
*566 _372_
*567 _373_
*568 _374_
*569 _375_
*570 _376_
*571 _377_
*572 _378_
*573 _379_
*574 _380_
*575 _381_
*576 _382_
*577 _383_
*578 _384_
*579 _385_
*580 _386_
*581 _387_
*582 _388_
*583 _389_
*584 _390_
*585 _391_
*586 _392_
*587 _393_
*588 _394_
*589 _395_
*590 _396_
*591 _397_
*592 _398_
*593 _399_
*594 _400_
*595 _401_
*596 _402_
*597 _403_
*598 _404_
*599 _405_
*600 _406_
*601 _407_
*602 _408_
*603 _409_
*604 _410_
*605 _411_
*606 _412_
*607 _413_
*608 _414_
*609 _415_
*610 _416_
*611 _417_
*612 _418_
*613 _419_
*614 _420_
*615 _421_
*616 _422_
*617 _423_
*618 _424_
*619 _425_
*620 _426_
*621 _427_
*622 _428_
*623 _429_
*624 _430_
*625 _431_
*626 _432_
*627 _433_
*628 _434_
*629 _435_
*630 _436_
*631 _437_
*632 _438_
*633 _439_
*634 _440_
*635 _441_
*636 _442_
*637 _443_
*638 _444_
*639 _445_
*640 _446_
*641 _447_
*642 _448_
*643 _449_
*644 _450_
*645 _451_
*646 _452_
*647 _453_
*648 _454_
*649 _455_
*650 _456_
*651 _457_
*652 _458_
*653 _459_
*654 _460_
*655 _461_
*656 _462_
*657 _463_
*658 _464_
*659 _465_
*660 _466_
*661 _467_
*662 _468_
*663 _469_
*664 _470_
*665 _471_
*666 _472_
*667 _473_
*668 _474_
*669 _475_
*670 _476_
*671 _477_
*672 _478_
*673 PHY_0
*674 PHY_1
*675 PHY_2
*676 PHY_3
*677 PHY_4
*678 PHY_5
*679 PHY_6
*680 PHY_7
*681 PHY_8
*682 PHY_9
*683 PHY_10
*684 PHY_11
*685 PHY_12
*686 PHY_13
*687 PHY_14
*688 PHY_15
*689 PHY_16
*690 PHY_17
*691 PHY_18
*692 PHY_19
*693 PHY_20
*694 PHY_21
*695 PHY_22
*696 PHY_23
*697 PHY_24
*698 PHY_25
*699 PHY_26
*700 PHY_27
*701 PHY_28
*702 PHY_29
*703 PHY_30
*704 PHY_31
*705 PHY_32
*706 PHY_33
*707 PHY_34
*708 PHY_35
*709 PHY_36
*710 PHY_37
*711 PHY_38
*712 PHY_39
*713 PHY_40
*714 PHY_41
*715 PHY_42
*716 PHY_43
*717 PHY_44
*718 PHY_45
*719 PHY_46
*720 PHY_47
*721 PHY_48
*722 PHY_49
*723 PHY_50
*724 PHY_51
*725 PHY_52
*726 PHY_53
*727 PHY_54
*728 PHY_55
*729 PHY_56
*730 PHY_57
*731 PHY_58
*732 PHY_59
*733 PHY_60
*734 PHY_61
*735 PHY_62
*736 PHY_63
*737 PHY_64
*738 PHY_65
*739 TAP_66
*740 TAP_67
*741 TAP_68
*742 TAP_69
*743 TAP_70
*744 TAP_71
*745 TAP_72
*746 TAP_73
*747 TAP_74
*748 TAP_75
*749 TAP_76
*750 TAP_77
*751 TAP_78
*752 TAP_79
*753 TAP_80
*754 TAP_81
*755 TAP_82
*756 TAP_83
*757 TAP_84
*758 TAP_85
*759 TAP_86
*760 TAP_87
*761 TAP_88
*762 TAP_89
*763 TAP_90
*764 TAP_91
*765 TAP_92
*766 TAP_93
*767 TAP_94
*768 TAP_95
*769 TAP_96
*770 TAP_97
*771 TAP_98
*772 TAP_99
*773 TAP_100
*774 TAP_101
*775 TAP_102
*776 TAP_103
*777 TAP_104
*778 TAP_105
*779 TAP_106
*780 TAP_107
*781 TAP_108
*782 TAP_109
*783 TAP_110
*784 TAP_111
*785 TAP_112
*786 TAP_113
*787 TAP_114
*788 TAP_115
*789 TAP_116
*790 TAP_117
*791 TAP_118
*792 TAP_119
*793 TAP_120
*794 TAP_121
*795 TAP_122
*796 TAP_123
*797 TAP_124
*798 TAP_125
*799 TAP_126
*800 TAP_127
*801 TAP_128
*802 TAP_129
*803 TAP_130
*804 TAP_131
*805 TAP_132
*806 TAP_133
*807 TAP_134
*808 TAP_135
*809 TAP_136
*810 TAP_137
*811 TAP_138
*812 TAP_139
*813 TAP_140
*814 TAP_141
*815 TAP_142
*816 TAP_143
*817 TAP_144
*818 TAP_145
*819 TAP_146
*820 TAP_147
*821 TAP_148
*822 TAP_149
*823 TAP_150
*824 TAP_151
*825 TAP_152
*826 TAP_153
*827 TAP_154
*828 TAP_155
*829 TAP_156
*830 TAP_157
*831 TAP_158
*832 TAP_159
*833 TAP_160
*834 TAP_161
*835 TAP_162
*836 TAP_163
*837 TAP_164
*838 TAP_165
*839 TAP_166
*840 TAP_167
*841 TAP_168
*842 TAP_169
*843 TAP_170
*844 input1
*845 input2
*846 input3
*847 input4
*848 input5
*849 input6
*850 input7
*851 input8
*852 input9
*853 input10
*854 input11
*855 input12
*856 input13
*857 input14
*858 input15
*859 input16
*860 input17
*861 input18
*862 input19
*863 input20
*864 input21
*865 input22
*866 input23
*867 input24
*868 input25
*869 input26
*870 input27
*871 input28
*872 input29
*873 input30
*874 input31
*875 input32
*876 input33
*877 input34
*878 output35
*879 fanout36
*880 fanout37
*881 fanout38
*882 fanout39
*883 fanout40
*884 fanout41
*885 fanout42
*886 fanout43
*887 fanout44
*888 fanout45
*889 fanout46
*890 fanout47
*891 fanout48
*892 fanout49
*893 fanout50
*894 fanout51
*895 fanout52
*896 clkbuf_0_clk
*897 clkbuf_3_0__f_clk
*898 clkbuf_3_1__f_clk
*899 clkbuf_3_2__f_clk
*900 clkbuf_3_3__f_clk
*901 clkbuf_3_4__f_clk
*902 clkbuf_3_5__f_clk
*903 clkbuf_3_6__f_clk
*904 clkbuf_3_7__f_clk
*905 FILLER_0_3
*906 FILLER_0_15
*907 FILLER_0_27
*908 FILLER_0_29
*909 FILLER_0_41
*910 FILLER_0_53
*911 FILLER_0_57
*912 FILLER_0_69
*913 FILLER_0_81
*914 FILLER_0_85
*915 FILLER_0_97
*916 FILLER_0_109
*917 FILLER_0_113
*918 FILLER_0_125
*919 FILLER_0_137
*920 FILLER_0_141
*921 FILLER_0_156
*922 FILLER_0_169
*923 FILLER_0_181
*924 FILLER_1_3
*925 FILLER_1_15
*926 FILLER_1_27
*927 FILLER_1_39
*928 FILLER_1_51
*929 FILLER_1_55
*930 FILLER_1_57
*931 FILLER_1_69
*932 FILLER_1_81
*933 FILLER_1_93
*934 FILLER_1_105
*935 FILLER_1_111
*936 FILLER_1_113
*937 FILLER_1_125
*938 FILLER_1_137
*939 FILLER_1_149
*940 FILLER_1_161
*941 FILLER_1_167
*942 FILLER_1_169
*943 FILLER_1_181
*944 FILLER_2_3
*945 FILLER_2_15
*946 FILLER_2_27
*947 FILLER_2_29
*948 FILLER_2_41
*949 FILLER_2_53
*950 FILLER_2_65
*951 FILLER_2_77
*952 FILLER_2_83
*953 FILLER_2_85
*954 FILLER_2_97
*955 FILLER_2_109
*956 FILLER_2_121
*957 FILLER_2_133
*958 FILLER_2_139
*959 FILLER_2_141
*960 FILLER_2_153
*961 FILLER_2_165
*962 FILLER_2_177
*963 FILLER_2_189
*964 FILLER_3_3
*965 FILLER_3_15
*966 FILLER_3_27
*967 FILLER_3_39
*968 FILLER_3_51
*969 FILLER_3_55
*970 FILLER_3_57
*971 FILLER_3_69
*972 FILLER_3_81
*973 FILLER_3_93
*974 FILLER_3_105
*975 FILLER_3_111
*976 FILLER_3_113
*977 FILLER_3_125
*978 FILLER_3_137
*979 FILLER_3_149
*980 FILLER_3_161
*981 FILLER_3_167
*982 FILLER_3_169
*983 FILLER_3_181
*984 FILLER_4_12
*985 FILLER_4_24
*986 FILLER_4_29
*987 FILLER_4_41
*988 FILLER_4_53
*989 FILLER_4_65
*990 FILLER_4_77
*991 FILLER_4_83
*992 FILLER_4_85
*993 FILLER_4_97
*994 FILLER_4_109
*995 FILLER_4_121
*996 FILLER_4_133
*997 FILLER_4_139
*998 FILLER_4_141
*999 FILLER_4_151
*1000 FILLER_4_155
*1001 FILLER_4_176
*1002 FILLER_4_188
*1003 FILLER_4_192
*1004 FILLER_5_3
*1005 FILLER_5_32
*1006 FILLER_5_40
*1007 FILLER_5_51
*1008 FILLER_5_55
*1009 FILLER_5_57
*1010 FILLER_5_88
*1011 FILLER_5_100
*1012 FILLER_5_106
*1013 FILLER_5_113
*1014 FILLER_5_125
*1015 FILLER_5_151
*1016 FILLER_5_160
*1017 FILLER_5_184
*1018 FILLER_5_189
*1019 FILLER_6_3
*1020 FILLER_6_14
*1021 FILLER_6_18
*1022 FILLER_6_26
*1023 FILLER_6_29
*1024 FILLER_6_56
*1025 FILLER_6_67
*1026 FILLER_6_75
*1027 FILLER_6_83
*1028 FILLER_6_112
*1029 FILLER_6_118
*1030 FILLER_6_122
*1031 FILLER_6_134
*1032 FILLER_6_141
*1033 FILLER_6_151
*1034 FILLER_6_167
*1035 FILLER_7_3
*1036 FILLER_7_7
*1037 FILLER_7_35
*1038 FILLER_7_48
*1039 FILLER_7_57
*1040 FILLER_7_61
*1041 FILLER_7_72
*1042 FILLER_7_84
*1043 FILLER_7_92
*1044 FILLER_7_105
*1045 FILLER_7_111
*1046 FILLER_7_133
*1047 FILLER_7_137
*1048 FILLER_7_147
*1049 FILLER_7_159
*1050 FILLER_7_167
*1051 FILLER_7_169
*1052 FILLER_7_181
*1053 FILLER_8_3
*1054 FILLER_8_27
*1055 FILLER_8_34
*1056 FILLER_8_44
*1057 FILLER_8_83
*1058 FILLER_8_85
*1059 FILLER_8_101
*1060 FILLER_8_113
*1061 FILLER_8_119
*1062 FILLER_8_141
*1063 FILLER_8_155
*1064 FILLER_8_167
*1065 FILLER_8_177
*1066 FILLER_8_189
*1067 FILLER_9_3
*1068 FILLER_9_15
*1069 FILLER_9_60
*1070 FILLER_9_69
*1071 FILLER_9_78
*1072 FILLER_9_84
*1073 FILLER_9_108
*1074 FILLER_9_123
*1075 FILLER_9_149
*1076 FILLER_9_161
*1077 FILLER_9_167
*1078 FILLER_9_179
*1079 FILLER_9_191
*1080 FILLER_10_3
*1081 FILLER_10_15
*1082 FILLER_10_27
*1083 FILLER_10_32
*1084 FILLER_10_44
*1085 FILLER_10_65
*1086 FILLER_10_77
*1087 FILLER_10_83
*1088 FILLER_10_85
*1089 FILLER_10_97
*1090 FILLER_10_135
*1091 FILLER_10_139
*1092 FILLER_10_141
*1093 FILLER_10_152
*1094 FILLER_10_158
*1095 FILLER_10_191
*1096 FILLER_11_3
*1097 FILLER_11_7
*1098 FILLER_11_15
*1099 FILLER_11_27
*1100 FILLER_11_39
*1101 FILLER_11_44
*1102 FILLER_11_57
*1103 FILLER_11_65
*1104 FILLER_11_89
*1105 FILLER_11_101
*1106 FILLER_11_109
*1107 FILLER_11_138
*1108 FILLER_11_164
*1109 FILLER_11_172
*1110 FILLER_11_187
*1111 FILLER_12_3
*1112 FILLER_12_9
*1113 FILLER_12_20
*1114 FILLER_12_26
*1115 FILLER_12_29
*1116 FILLER_12_41
*1117 FILLER_12_53
*1118 FILLER_12_59
*1119 FILLER_12_70
*1120 FILLER_12_82
*1121 FILLER_12_85
*1122 FILLER_12_93
*1123 FILLER_12_98
*1124 FILLER_12_105
*1125 FILLER_12_117
*1126 FILLER_12_124
*1127 FILLER_12_136
*1128 FILLER_12_141
*1129 FILLER_12_153
*1130 FILLER_12_165
*1131 FILLER_13_3
*1132 FILLER_13_31
*1133 FILLER_13_39
*1134 FILLER_13_47
*1135 FILLER_13_55
*1136 FILLER_13_57
*1137 FILLER_13_70
*1138 FILLER_13_76
*1139 FILLER_13_111
*1140 FILLER_13_113
*1141 FILLER_13_125
*1142 FILLER_13_137
*1143 FILLER_13_145
*1144 FILLER_13_156
*1145 FILLER_13_169
*1146 FILLER_13_181
*1147 FILLER_14_3
*1148 FILLER_14_15
*1149 FILLER_14_19
*1150 FILLER_14_27
*1151 FILLER_14_29
*1152 FILLER_14_81
*1153 FILLER_14_85
*1154 FILLER_14_93
*1155 FILLER_14_101
*1156 FILLER_14_113
*1157 FILLER_14_139
*1158 FILLER_14_161
*1159 FILLER_14_180
*1160 FILLER_14_188
*1161 FILLER_14_192
*1162 FILLER_15_3
*1163 FILLER_15_15
*1164 FILLER_15_27
*1165 FILLER_15_51
*1166 FILLER_15_55
*1167 FILLER_15_57
*1168 FILLER_15_68
*1169 FILLER_15_80
*1170 FILLER_15_92
*1171 FILLER_15_104
*1172 FILLER_15_113
*1173 FILLER_15_125
*1174 FILLER_15_137
*1175 FILLER_15_157
*1176 FILLER_15_189
*1177 FILLER_16_3
*1178 FILLER_16_7
*1179 FILLER_16_32
*1180 FILLER_16_44
*1181 FILLER_16_56
*1182 FILLER_16_88
*1183 FILLER_16_105
*1184 FILLER_16_117
*1185 FILLER_16_128
*1186 FILLER_16_141
*1187 FILLER_16_153
*1188 FILLER_16_165
*1189 FILLER_16_173
*1190 FILLER_16_179
*1191 FILLER_16_188
*1192 FILLER_16_192
*1193 FILLER_17_3
*1194 FILLER_17_18
*1195 FILLER_17_32
*1196 FILLER_17_38
*1197 FILLER_17_42
*1198 FILLER_17_51
*1199 FILLER_17_55
*1200 FILLER_17_57
*1201 FILLER_17_61
*1202 FILLER_17_69
*1203 FILLER_17_81
*1204 FILLER_17_89
*1205 FILLER_17_110
*1206 FILLER_17_133
*1207 FILLER_17_141
*1208 FILLER_17_153
*1209 FILLER_17_158
*1210 FILLER_17_166
*1211 FILLER_17_169
*1212 FILLER_17_181
*1213 FILLER_17_187
*1214 FILLER_18_3
*1215 FILLER_18_24
*1216 FILLER_18_29
*1217 FILLER_18_64
*1218 FILLER_18_76
*1219 FILLER_18_85
*1220 FILLER_18_112
*1221 FILLER_18_120
*1222 FILLER_18_135
*1223 FILLER_18_139
*1224 FILLER_18_141
*1225 FILLER_18_170
*1226 FILLER_19_3
*1227 FILLER_19_15
*1228 FILLER_19_36
*1229 FILLER_19_48
*1230 FILLER_19_84
*1231 FILLER_19_96
*1232 FILLER_19_107
*1233 FILLER_19_111
*1234 FILLER_19_113
*1235 FILLER_19_125
*1236 FILLER_19_149
*1237 FILLER_19_155
*1238 FILLER_19_162
*1239 FILLER_19_179
*1240 FILLER_19_191
*1241 FILLER_20_3
*1242 FILLER_20_15
*1243 FILLER_20_19
*1244 FILLER_20_27
*1245 FILLER_20_36
*1246 FILLER_20_49
*1247 FILLER_20_61
*1248 FILLER_20_67
*1249 FILLER_20_71
*1250 FILLER_20_80
*1251 FILLER_20_85
*1252 FILLER_20_114
*1253 FILLER_20_138
*1254 FILLER_20_141
*1255 FILLER_20_155
*1256 FILLER_20_167
*1257 FILLER_20_178
*1258 FILLER_20_186
*1259 FILLER_20_192
*1260 FILLER_21_3
*1261 FILLER_21_15
*1262 FILLER_21_27
*1263 FILLER_21_57
*1264 FILLER_21_69
*1265 FILLER_21_81
*1266 FILLER_21_93
*1267 FILLER_21_106
*1268 FILLER_21_113
*1269 FILLER_21_125
*1270 FILLER_21_133
*1271 FILLER_21_162
*1272 FILLER_21_189
*1273 FILLER_22_3
*1274 FILLER_22_7
*1275 FILLER_22_32
*1276 FILLER_22_48
*1277 FILLER_22_60
*1278 FILLER_22_88
*1279 FILLER_22_100
*1280 FILLER_22_112
*1281 FILLER_22_126
*1282 FILLER_22_138
*1283 FILLER_22_141
*1284 FILLER_22_148
*1285 FILLER_22_160
*1286 FILLER_22_175
*1287 FILLER_22_186
*1288 FILLER_22_192
*1289 FILLER_23_3
*1290 FILLER_23_15
*1291 FILLER_23_27
*1292 FILLER_23_57
*1293 FILLER_23_71
*1294 FILLER_23_83
*1295 FILLER_23_99
*1296 FILLER_23_104
*1297 FILLER_23_113
*1298 FILLER_23_119
*1299 FILLER_23_132
*1300 FILLER_23_140
*1301 FILLER_23_149
*1302 FILLER_23_161
*1303 FILLER_23_167
*1304 FILLER_23_169
*1305 FILLER_24_3
*1306 FILLER_24_11
*1307 FILLER_24_25
*1308 FILLER_24_29
*1309 FILLER_24_38
*1310 FILLER_24_44
*1311 FILLER_24_65
*1312 FILLER_24_79
*1313 FILLER_24_83
*1314 FILLER_24_85
*1315 FILLER_24_89
*1316 FILLER_24_137
*1317 FILLER_24_141
*1318 FILLER_24_166
*1319 FILLER_24_178
*1320 FILLER_24_190
*1321 FILLER_25_3
*1322 FILLER_25_32
*1323 FILLER_25_44
*1324 FILLER_25_84
*1325 FILLER_25_96
*1326 FILLER_25_108
*1327 FILLER_25_113
*1328 FILLER_25_119
*1329 FILLER_25_123
*1330 FILLER_25_135
*1331 FILLER_25_143
*1332 FILLER_25_147
*1333 FILLER_25_159
*1334 FILLER_25_167
*1335 FILLER_25_169
*1336 FILLER_25_180
*1337 FILLER_25_188
*1338 FILLER_25_192
*1339 FILLER_26_3
*1340 FILLER_26_15
*1341 FILLER_26_20
*1342 FILLER_26_29
*1343 FILLER_26_41
*1344 FILLER_26_53
*1345 FILLER_26_65
*1346 FILLER_26_70
*1347 FILLER_26_82
*1348 FILLER_26_85
*1349 FILLER_26_93
*1350 FILLER_26_121
*1351 FILLER_26_130
*1352 FILLER_26_138
*1353 FILLER_26_141
*1354 FILLER_26_150
*1355 FILLER_26_156
*1356 FILLER_26_192
*1357 FILLER_27_6
*1358 FILLER_27_18
*1359 FILLER_27_22
*1360 FILLER_27_34
*1361 FILLER_27_44
*1362 FILLER_27_53
*1363 FILLER_27_57
*1364 FILLER_27_69
*1365 FILLER_27_78
*1366 FILLER_27_111
*1367 FILLER_27_113
*1368 FILLER_27_163
*1369 FILLER_27_167
*1370 FILLER_27_169
*1371 FILLER_27_174
*1372 FILLER_27_181
*1373 FILLER_28_3
*1374 FILLER_28_27
*1375 FILLER_28_29
*1376 FILLER_28_57
*1377 FILLER_28_83
*1378 FILLER_28_85
*1379 FILLER_28_107
*1380 FILLER_28_119
*1381 FILLER_28_131
*1382 FILLER_28_139
*1383 FILLER_28_141
*1384 FILLER_28_149
*1385 FILLER_28_161
*1386 FILLER_28_173
*1387 FILLER_28_185
*1388 FILLER_29_17
*1389 FILLER_29_29
*1390 FILLER_29_41
*1391 FILLER_29_53
*1392 FILLER_29_57
*1393 FILLER_29_66
*1394 FILLER_29_78
*1395 FILLER_29_90
*1396 FILLER_29_102
*1397 FILLER_29_110
*1398 FILLER_29_113
*1399 FILLER_29_117
*1400 FILLER_29_125
*1401 FILLER_29_137
*1402 FILLER_29_145
*1403 FILLER_29_151
*1404 FILLER_29_163
*1405 FILLER_29_167
*1406 FILLER_29_169
*1407 FILLER_30_3
*1408 FILLER_30_20
*1409 FILLER_30_26
*1410 FILLER_30_29
*1411 FILLER_30_42
*1412 FILLER_30_54
*1413 FILLER_30_65
*1414 FILLER_30_76
*1415 FILLER_30_90
*1416 FILLER_30_101
*1417 FILLER_30_106
*1418 FILLER_30_114
*1419 FILLER_30_135
*1420 FILLER_30_139
*1421 FILLER_30_154
*1422 FILLER_30_185
*1423 FILLER_30_189
*1424 FILLER_31_3
*1425 FILLER_31_32
*1426 FILLER_31_60
*1427 FILLER_31_88
*1428 FILLER_31_138
*1429 FILLER_31_161
*1430 FILLER_31_167
*1431 FILLER_31_169
*1432 FILLER_31_184
*1433 FILLER_31_192
*1434 FILLER_32_3
*1435 FILLER_32_8
*1436 FILLER_32_14
*1437 FILLER_32_26
*1438 FILLER_32_32
*1439 FILLER_32_38
*1440 FILLER_32_44
*1441 FILLER_32_50
*1442 FILLER_32_57
*1443 FILLER_32_62
*1444 FILLER_32_68
*1445 FILLER_32_75
*1446 FILLER_32_83
*1447 FILLER_32_88
*1448 FILLER_32_92
*1449 FILLER_32_98
*1450 FILLER_32_104
*1451 FILLER_32_110
*1452 FILLER_32_116
*1453 FILLER_32_122
*1454 FILLER_32_128
*1455 FILLER_32_134
*1456 FILLER_32_141
*1457 FILLER_32_146
*1458 FILLER_32_152
*1459 FILLER_32_158
*1460 FILLER_32_164
*1461 FILLER_32_172
*1462 FILLER_32_176
*1463 FILLER_32_182
*1464 FILLER_32_188

*PORTS
clk I
p O
rst I
x[0] I
x[10] I
x[11] I
x[12] I
x[13] I
x[14] I
x[15] I
x[16] I
x[17] I
x[18] I
x[19] I
x[1] I
x[20] I
x[21] I
x[22] I
x[23] I
x[24] I
x[25] I
x[26] I
x[27] I
x[28] I
x[29] I
x[2] I
x[30] I
x[31] I
x[3] I
x[4] I
x[5] I
x[6] I
x[7] I
x[8] I
x[9] I
y I

*D_NET *1 0.000260714
*CONN
*I *609:D I *D sky130_fd_sc_hd__dfrtp_1
*I *388:X O *D sky130_fd_sc_hd__a31o_1
*CAP
1 *609:D 0.000130357
2 *388:X 0.000130357
3 *609:D *326:14 0
*RES
1 *388:X *609:D 29.475 
*END

*D_NET *2 0.000958237
*CONN
*I *631:D I *D sky130_fd_sc_hd__dfrtp_1
*I *442:X O *D sky130_fd_sc_hd__a31o_1
*CAP
1 *631:D 0.00036289
2 *442:X 0.00036289
3 *631:D *443:B 4.46186e-06
4 *631:D *631:CLK 7.15846e-05
5 *631:D *327:18 7.4826e-05
6 *631:D *357:14 8.15843e-05
*RES
1 *442:X *631:D 33.5107 
*END

*D_NET *3 0.000603033
*CONN
*I *633:D I *D sky130_fd_sc_hd__dfrtp_1
*I *447:X O *D sky130_fd_sc_hd__a31o_1
*CAP
1 *633:D 0.000200771
2 *447:X 0.000200771
3 *633:D *447:B1 0
4 *633:D *133:12 4.15914e-05
5 *633:D *327:16 6.74911e-05
6 *633:D *377:60 9.24082e-05
*RES
1 *447:X *633:D 31.8321 
*END

*D_NET *4 0.000601302
*CONN
*I *635:D I *D sky130_fd_sc_hd__dfrtp_1
*I *452:X O *D sky130_fd_sc_hd__a31o_1
*CAP
1 *635:D 0.000277779
2 *452:X 0.000277779
3 *635:D *136:16 0
4 *635:D *327:16 4.57445e-05
5 *635:D *329:16 0
*RES
1 *452:X *635:D 32.2429 
*END

*D_NET *5 0.000493525
*CONN
*I *637:D I *D sky130_fd_sc_hd__dfrtp_1
*I *457:X O *D sky130_fd_sc_hd__a31o_1
*CAP
1 *637:D 0.000225967
2 *457:X 0.000225967
3 *637:D *139:10 4.15914e-05
4 *637:D *327:16 0
5 *637:D *329:16 0
*RES
1 *457:X *637:D 31.4214 
*END

*D_NET *6 0.000472801
*CONN
*I *639:D I *D sky130_fd_sc_hd__dfrtp_1
*I *462:X O *D sky130_fd_sc_hd__a31o_1
*CAP
1 *639:D 0.0002364
2 *462:X 0.0002364
3 *639:D *142:8 0
4 *639:D *206:8 0
*RES
1 *462:X *639:D 30.7071 
*END

*D_NET *7 0.0005223
*CONN
*I *641:D I *D sky130_fd_sc_hd__dfrtp_1
*I *467:X O *D sky130_fd_sc_hd__a31o_1
*CAP
1 *641:D 0.00013531
2 *467:X 0.00013531
3 *641:D *569:A 0.000205926
4 *641:D *371:10 4.57538e-05
*RES
1 *467:X *641:D 31.0107 
*END

*D_NET *8 0.000749664
*CONN
*I *643:D I *D sky130_fd_sc_hd__dfrtp_1
*I *472:X O *D sky130_fd_sc_hd__a31o_1
*CAP
1 *643:D 0.000299166
2 *472:X 0.000299166
3 *643:D *369:57 0
4 *643:D *377:10 0.000151333
*RES
1 *472:X *643:D 32.6714 
*END

*D_NET *9 0.000717962
*CONN
*I *645:D I *D sky130_fd_sc_hd__dfrtp_1
*I *477:X O *D sky130_fd_sc_hd__a31o_1
*CAP
1 *645:D 0.000334989
2 *477:X 0.000334989
3 *645:D *645:CLK 4.79842e-05
*RES
1 *477:X *645:D 32.2429 
*END

*D_NET *10 0.000670124
*CONN
*I *647:D I *D sky130_fd_sc_hd__dfrtp_1
*I *482:X O *D sky130_fd_sc_hd__a31o_1
*CAP
1 *647:D 0.00021596
2 *482:X 0.00021596
3 *647:D *484:B 0.000129595
4 *647:D *335:10 6.0038e-05
5 *647:D *335:18 0
6 *647:D *382:14 2.8266e-06
7 *647:D *382:49 4.57445e-05
*RES
1 *482:X *647:D 31.4214 
*END

*D_NET *11 0.000504962
*CONN
*I *649:D I *D sky130_fd_sc_hd__dfrtp_1
*I *487:X O *D sky130_fd_sc_hd__a31o_1
*CAP
1 *649:D 0.000116523
2 *487:X 0.000116523
3 *649:D *883:A 9.80173e-05
4 *649:D *335:10 0.000128154
5 *649:D *382:71 4.57445e-05
*RES
1 *487:X *649:D 30.1893 
*END

*D_NET *12 0.000460488
*CONN
*I *613:D I *D sky130_fd_sc_hd__dfrtp_1
*I *397:X O *D sky130_fd_sc_hd__a31o_1
*CAP
1 *613:D 0.000166539
2 *397:X 0.000166539
3 *613:D *326:14 0
4 *613:D *337:18 0.000127409
*RES
1 *397:X *613:D 30.6 
*END

*D_NET *13 0.00079678
*CONN
*I *651:D I *D sky130_fd_sc_hd__dfrtp_1
*I *492:X O *D sky130_fd_sc_hd__a31o_1
*CAP
1 *651:D 0.000283138
2 *492:X 0.000283138
3 *651:D *578:A 7.32272e-05
4 *651:D *652:CLK 4.17586e-05
5 *651:D *335:10 0.000101545
6 *651:D *365:47 1.39726e-05
*RES
1 *492:X *651:D 32.0643 
*END

*D_NET *14 0.000548892
*CONN
*I *653:D I *D sky130_fd_sc_hd__dfrtp_1
*I *497:X O *D sky130_fd_sc_hd__a31o_1
*CAP
1 *653:D 0.000210369
2 *497:X 0.000210369
3 *653:D *335:10 0
4 *653:D *336:10 0.000128154
*RES
1 *497:X *653:D 31.4214 
*END

*D_NET *15 0.000417451
*CONN
*I *655:D I *D sky130_fd_sc_hd__dfrtp_1
*I *502:X O *D sky130_fd_sc_hd__a31o_1
*CAP
1 *655:D 0.000200383
2 *502:X 0.000200383
3 *655:D *504:B 7.43578e-06
4 *655:D *655:CLK 9.25014e-06
5 *655:D *341:10 0
*RES
1 *502:X *655:D 30.2964 
*END

*D_NET *16 0.000581927
*CONN
*I *657:D I *D sky130_fd_sc_hd__dfrtp_1
*I *507:X O *D sky130_fd_sc_hd__a31o_1
*CAP
1 *657:D 0.000247353
2 *507:X 0.000247353
3 *657:D *507:A3 7.83587e-05
4 *657:D *657:CLK 8.86129e-06
5 *657:D *385:10 0
*RES
1 *507:X *657:D 30.8723 
*END

*D_NET *17 0.000321909
*CONN
*I *659:D I *D sky130_fd_sc_hd__dfrtp_1
*I *512:X O *D sky130_fd_sc_hd__a31o_1
*CAP
1 *659:D 0.000112758
2 *512:X 0.000112758
3 *659:D *172:8 6.74815e-05
4 *659:D *363:101 2.89114e-05
5 *659:D *372:102 0
*RES
1 *512:X *659:D 29.7786 
*END

*D_NET *18 0.00157861
*CONN
*I *661:D I *D sky130_fd_sc_hd__dfrtp_1
*I *517:X O *D sky130_fd_sc_hd__a31o_1
*CAP
1 *661:D 0.00069142
2 *517:X 0.00069142
3 *661:D *516:A 3.06878e-06
4 *661:D *516:B 2.51343e-06
5 *661:D *247:6 1.57885e-05
6 *661:D *382:25 0.000174397
*RES
1 *517:X *661:D 26.9973 
*END

*D_NET *19 0.000696022
*CONN
*I *663:D I *D sky130_fd_sc_hd__dfrtp_1
*I *522:X O *D sky130_fd_sc_hd__a31o_1
*CAP
1 *663:D 0.000275096
2 *522:X 0.000275096
3 *663:D *522:A3 5.03787e-05
4 *663:D *523:B 2.89114e-05
5 *663:D *524:A 6.65398e-05
6 *663:D *663:CLK 0
7 *663:D *895:A 0
*RES
1 *522:X *663:D 32.8143 
*END

*D_NET *20 0.000741744
*CONN
*I *665:D I *D sky130_fd_sc_hd__dfrtp_1
*I *527:X O *D sky130_fd_sc_hd__a31o_1
*CAP
1 *665:D 0.000319599
2 *527:X 0.000319599
3 *665:D *665:RESET_B 0
4 *665:D *344:10 0.000102545
*RES
1 *527:X *665:D 31.9393 
*END

*D_NET *21 0.000533975
*CONN
*I *667:D I *D sky130_fd_sc_hd__dfrtp_1
*I *532:X O *D sky130_fd_sc_hd__a31o_1
*CAP
1 *667:D 0.000110004
2 *532:X 0.000110004
3 *667:D *534:B 4.43256e-05
4 *667:D *184:8 1.33343e-05
5 *667:D *346:18 0.000128154
6 *667:D *383:60 0.000128154
*RES
1 *532:X *667:D 30.1893 
*END

*D_NET *22 0.000394592
*CONN
*I *669:D I *D sky130_fd_sc_hd__dfrtp_1
*I *537:X O *D sky130_fd_sc_hd__a31o_1
*CAP
1 *669:D 9.23185e-05
2 *537:X 9.23185e-05
3 *669:D *539:B 6.05161e-06
4 *669:D *346:18 0.000128154
5 *669:D *347:10 6.74911e-05
6 *669:D *366:24 8.25843e-06
*RES
1 *537:X *669:D 29.7786 
*END

*D_NET *23 0.000532521
*CONN
*I *615:D I *D sky130_fd_sc_hd__dfrtp_1
*I *402:X O *D sky130_fd_sc_hd__a31o_1
*CAP
1 *615:D 0.000187315
2 *402:X 0.000187315
3 *615:D *404:A 0.000102197
4 *615:D *326:14 0
5 *615:D *337:18 5.56943e-05
*RES
1 *402:X *615:D 30.7071 
*END

*D_NET *24 0.000484759
*CONN
*I *671:D I *D sky130_fd_sc_hd__dfrtp_1
*I *542:X O *D sky130_fd_sc_hd__a31o_1
*CAP
1 *671:D 0.000150775
2 *542:X 0.000150775
3 *671:D *544:A 9.25014e-06
4 *671:D *544:B 0.000120572
5 *671:D *346:12 5.33882e-05
*RES
1 *542:X *671:D 30.2964 
*END

*D_NET *25 0.000778646
*CONN
*I *617:D I *D sky130_fd_sc_hd__dfrtp_1
*I *407:X O *D sky130_fd_sc_hd__a31o_1
*CAP
1 *617:D 0.000214002
2 *407:X 0.000214002
3 *617:D *351:14 0.000220774
4 *617:D *380:47 0.000129868
*RES
1 *407:X *617:D 31.4214 
*END

*D_NET *26 0.000745908
*CONN
*I *619:D I *D sky130_fd_sc_hd__dfrtp_1
*I *412:X O *D sky130_fd_sc_hd__a31o_1
*CAP
1 *619:D 0.000218997
2 *412:X 0.000218997
3 *619:D *619:CLK 4.79842e-05