*SPEF "ieee 1481-1999"
*DESIGN "spm"
*DATE "11:11:11 Fri 11 11, 1111"
*VENDOR "OpenRCX"
*PROGRAM "Parallel Extraction"
*VERSION "1.0"
*DESIGN_FLOW "NAME_SCOPE LOCAL" "PIN_CAP NONE"
*DIVIDER /
*DELIMITER :
*BUS_DELIMITER []
*T_UNIT 1 NS
*C_UNIT 1 PF
*R_UNIT 1 OHM
*L_UNIT 1 HENRY

*NAME_MAP
*3 clk
*4 p
*5 rst
*6 x[0]
*7 x[10]
*8 x[11]
*9 x[12]
*10 x[13]
*11 x[14]
*12 x[15]
*13 x[16]
*14 x[17]
*15 x[18]
*16 x[19]
*17 x[1]
*18 x[20]
*19 x[21]
*20 x[22]
*21 x[23]
*22 x[24]
*23 x[25]
*24 x[26]
*25 x[27]
*26 x[28]
*27 x[29]
*28 x[2]
*29 x[30]
*30 x[31]
*31 x[3]
*32 x[4]
*33 x[5]
*34 x[6]
*35 x[7]
*36 x[8]
*37 x[9]
*38 y
*39 _000_
*40 _001_
*41 _002_
*42 _003_
*43 _004_
*44 _005_
*45 _006_
*46 _007_
*47 _008_
*48 _009_
*49 _010_
*50 _011_
*51 _012_
*52 _013_
*53 _014_
*54 _015_
*55 _016_
*56 _017_
*57 _018_
*58 _019_
*59 _020_
*60 _021_
*61 _022_
*62 _023_
*63 _024_
*64 _025_
*65 _026_
*66 _027_
*67 _028_
*68 _029_
*69 _030_
*70 _031_
*71 _032_
*72 _033_
*73 _034_
*74 _035_
*75 _036_
*76 _037_
*77 _038_
*78 _039_
*79 _040_
*80 _041_
*81 _042_
*82 _043_
*83 _044_
*84 _045_
*85 _046_
*86 _047_
*87 _048_
*88 _049_
*89 _050_
*90 _051_
*91 _052_
*92 _053_
*93 _054_
*94 _055_
*95 _056_
*96 _057_
*97 _058_
*98 _059_
*99 _060_
*100 _061_
*101 _062_
*102 _063_
*103 _064_
*104 _065_
*105 _066_
*106 _067_
*107 _068_
*108 _069_
*109 _070_
*110 _071_
*111 _072_
*112 _073_
*113 _074_
*114 _075_
*115 _076_
*116 _077_
*117 _078_
*118 _079_
*119 _080_
*120 _081_
*121 _082_
*122 _083_
*123 _084_
*124 _085_
*125 _086_
*126 _087_
*127 _088_
*128 _089_
*129 _090_
*130 _091_
*131 _092_
*132 _093_
*133 _094_
*134 _095_
*135 _096_
*136 _097_
*137 _098_
*138 _099_
*139 _100_
*140 _101_
*141 _102_
*142 _103_
*143 _104_
*144 _105_
*145 _106_
*146 _107_
*147 _108_
*148 _109_
*149 _110_
*150 _111_
*151 _112_
*152 _113_
*153 _114_
*154 _115_
*155 _116_
*156 _117_
*157 _118_
*158 _119_
*159 _120_
*160 _121_
*161 _122_
*162 _123_
*163 _124_
*164 _125_
*165 _126_
*166 _127_
*167 _128_
*168 _129_
*169 _130_
*170 _131_
*171 _132_
*172 _133_
*173 _134_
*174 _135_
*175 _136_
*176 _137_
*177 _138_
*178 _139_
*179 _140_
*180 _141_
*181 _142_
*182 _143_
*183 _144_
*184 _145_
*185 _146_
*186 _147_
*187 _148_
*188 _149_
*189 _150_
*190 _151_
*191 _152_
*192 _153_
*193 _154_
*194 _155_
*195 _156_
*196 _157_
*197 _158_
*198 _159_
*199 _160_
*200 _161_
*201 _162_
*202 _163_
*203 _164_
*204 _165_
*205 _166_
*206 _167_
*207 _168_
*208 _169_
*209 _170_
*210 _171_
*211 _172_
*212 _173_
*213 _174_
*214 _175_
*215 _176_
*216 _177_
*217 _178_
*218 _179_
*219 _180_
*220 _181_
*221 _182_
*222 _183_
*223 _184_
*224 _185_
*225 _186_
*226 _187_
*227 _188_
*228 _189_
*229 _190_
*230 _191_
*231 csa0\.hsum2
*232 csa0\.sc
*233 csa0\.y
*234 genblk1\[10\]\.csa\.hsum2
*235 genblk1\[10\]\.csa\.sc
*236 genblk1\[10\]\.csa\.sum
*237 genblk1\[10\]\.csa\.y
*238 genblk1\[11\]\.csa\.hsum2
*239 genblk1\[11\]\.csa\.sc
*240 genblk1\[11\]\.csa\.y
*241 genblk1\[12\]\.csa\.hsum2
*242 genblk1\[12\]\.csa\.sc
*243 genblk1\[12\]\.csa\.y
*244 genblk1\[13\]\.csa\.hsum2
*245 genblk1\[13\]\.csa\.sc
*246 genblk1\[13\]\.csa\.y
*247 genblk1\[14\]\.csa\.hsum2
*248 genblk1\[14\]\.csa\.sc
*249 genblk1\[14\]\.csa\.y
*250 genblk1\[15\]\.csa\.hsum2
*251 genblk1\[15\]\.csa\.sc
*252 genblk1\[15\]\.csa\.y
*253 genblk1\[16\]\.csa\.hsum2
*254 genblk1\[16\]\.csa\.sc
*255 genblk1\[16\]\.csa\.y
*256 genblk1\[17\]\.csa\.hsum2
*257 genblk1\[17\]\.csa\.sc
*258 genblk1\[17\]\.csa\.y
*259 genblk1\[18\]\.csa\.hsum2
*260 genblk1\[18\]\.csa\.sc
*261 genblk1\[18\]\.csa\.y
*262 genblk1\[19\]\.csa\.hsum2
*263 genblk1\[19\]\.csa\.sc
*264 genblk1\[19\]\.csa\.y
*265 genblk1\[1\]\.csa\.hsum2
*266 genblk1\[1\]\.csa\.sc
*267 genblk1\[1\]\.csa\.y
*268 genblk1\[20\]\.csa\.hsum2
*269 genblk1\[20\]\.csa\.sc
*270 genblk1\[20\]\.csa\.y
*271 genblk1\[21\]\.csa\.hsum2
*272 genblk1\[21\]\.csa\.sc
*273 genblk1\[21\]\.csa\.y
*274 genblk1\[22\]\.csa\.hsum2
*275 genblk1\[22\]\.csa\.sc
*276 genblk1\[22\]\.csa\.y
*277 genblk1\[23\]\.csa\.hsum2
*278 genblk1\[23\]\.csa\.sc
*279 genblk1\[23\]\.csa\.y
*280 genblk1\[24\]\.csa\.hsum2
*281 genblk1\[24\]\.csa\.sc
*282 genblk1\[24\]\.csa\.y
*283 genblk1\[25\]\.csa\.hsum2
*284 genblk1\[25\]\.csa\.sc
*285 genblk1\[25\]\.csa\.y
*286 genblk1\[26\]\.csa\.hsum2
*287 genblk1\[26\]\.csa\.sc
*288 genblk1\[26\]\.csa\.y
*289 genblk1\[27\]\.csa\.hsum2
*290 genblk1\[27\]\.csa\.sc
*291 genblk1\[27\]\.csa\.y
*292 genblk1\[28\]\.csa\.hsum2
*293 genblk1\[28\]\.csa\.sc
*294 genblk1\[28\]\.csa\.y
*295 genblk1\[29\]\.csa\.hsum2
*296 genblk1\[29\]\.csa\.sc
*297 genblk1\[29\]\.csa\.y
*298 genblk1\[2\]\.csa\.hsum2
*299 genblk1\[2\]\.csa\.sc
*300 genblk1\[2\]\.csa\.y
*301 genblk1\[30\]\.csa\.hsum2
*302 genblk1\[30\]\.csa\.sc
*303 genblk1\[30\]\.csa\.y
*304 genblk1\[3\]\.csa\.hsum2
*305 genblk1\[3\]\.csa\.sc
*306 genblk1\[3\]\.csa\.y
*307 genblk1\[4\]\.csa\.hsum2
*308 genblk1\[4\]\.csa\.sc
*309 genblk1\[4\]\.csa\.y
*310 genblk1\[5\]\.csa\.hsum2
*311 genblk1\[5\]\.csa\.sc
*312 genblk1\[5\]\.csa\.y
*313 genblk1\[6\]\.csa\.hsum2
*314 genblk1\[6\]\.csa\.sc
*315 genblk1\[6\]\.csa\.y
*316 genblk1\[7\]\.csa\.hsum2
*317 genblk1\[7\]\.csa\.sc
*318 genblk1\[7\]\.csa\.y
*319 genblk1\[8\]\.csa\.hsum2
*320 genblk1\[8\]\.csa\.sc
*321 genblk1\[8\]\.csa\.y
*322 genblk1\[9\]\.csa\.hsum2
*323 genblk1\[9\]\.csa\.sc
*324 net1
*325 net10
*326 net11
*327 net12
*328 net13
*329 net14
*330 net15
*331 net16
*332 net17
*333 net18
*334 net19
*335 net2
*336 net20
*337 net21
*338 net22
*339 net23
*340 net24
*341 net25
*342 net26
*343 net27
*344 net28
*345 net29
*346 net3
*347 net30
*348 net31
*349 net32
*350 net33
*351 net34
*352 net35
*353 net36
*354 net37
*355 net38
*356 net39
*357 net4
*358 net40
*359 net41
*360 net42
*361 net43
*362 net44
*363 net45
*364 net46
*365 net47
*366 net48
*367 net49
*368 net5
*369 net50
*370 net51
*371 net52
*372 net6
*373 net7
*374 net8
*375 net9
*376 tcmp\.z
*377 FILLER_0_109
*378 FILLER_0_113
*379 FILLER_0_125
*380 FILLER_0_137
*381 FILLER_0_141
*382 FILLER_0_15
*383 FILLER_0_156
*384 FILLER_0_169
*385 FILLER_0_181
*386 FILLER_0_27
*387 FILLER_0_29
*388 FILLER_0_3
*389 FILLER_0_41
*390 FILLER_0_53
*391 FILLER_0_57
*392 FILLER_0_69
*393 FILLER_0_81
*394 FILLER_0_85
*395 FILLER_0_97
*396 FILLER_10_108
*397 FILLER_10_121
*398 FILLER_10_130
*399 FILLER_10_138
*400 FILLER_10_141
*401 FILLER_10_15
*402 FILLER_10_152
*403 FILLER_10_158
*404 FILLER_10_191
*405 FILLER_10_27
*406 FILLER_10_3
*407 FILLER_10_32
*408 FILLER_10_58
*409 FILLER_10_70
*410 FILLER_10_82
*411 FILLER_11_101
*412 FILLER_11_109
*413 FILLER_11_138
*414 FILLER_11_15
*415 FILLER_11_164
*416 FILLER_11_172
*417 FILLER_11_187
*418 FILLER_11_27
*419 FILLER_11_3
*420 FILLER_11_39
*421 FILLER_11_44
*422 FILLER_11_57
*423 FILLER_11_65
*424 FILLER_11_7
*425 FILLER_11_89
*426 FILLER_12_105
*427 FILLER_12_117
*428 FILLER_12_124
*429 FILLER_12_136
*430 FILLER_12_141
*431 FILLER_12_153
*432 FILLER_12_165
*433 FILLER_12_20
*434 FILLER_12_26
*435 FILLER_12_29
*436 FILLER_12_3
*437 FILLER_12_41
*438 FILLER_12_53
*439 FILLER_12_59
*440 FILLER_12_70
*441 FILLER_12_82
*442 FILLER_12_85
*443 FILLER_12_9
*444 FILLER_12_93
*445 FILLER_12_98
*446 FILLER_13_111
*447 FILLER_13_113
*448 FILLER_13_125
*449 FILLER_13_137
*450 FILLER_13_145
*451 FILLER_13_156
*452 FILLER_13_169
*453 FILLER_13_181
*454 FILLER_13_3
*455 FILLER_13_31
*456 FILLER_13_39
*457 FILLER_13_47
*458 FILLER_13_55
*459 FILLER_13_57
*460 FILLER_13_70
*461 FILLER_13_76
*462 FILLER_14_101
*463 FILLER_14_113
*464 FILLER_14_139
*465 FILLER_14_15
*466 FILLER_14_161
*467 FILLER_14_180
*468 FILLER_14_188
*469 FILLER_14_19
*470 FILLER_14_192
*471 FILLER_14_27
*472 FILLER_14_29
*473 FILLER_14_3
*474 FILLER_14_81
*475 FILLER_14_85
*476 FILLER_14_93
*477 FILLER_15_104
*478 FILLER_15_113
*479 FILLER_15_125
*480 FILLER_15_137
*481 FILLER_15_15
*482 FILLER_15_157
*483 FILLER_15_189
*484 FILLER_15_27
*485 FILLER_15_3
*486 FILLER_15_51
*487 FILLER_15_55
*488 FILLER_15_57
*489 FILLER_15_68
*490 FILLER_15_80
*491 FILLER_15_92
*492 FILLER_16_105
*493 FILLER_16_117
*494 FILLER_16_128
*495 FILLER_16_141
*496 FILLER_16_153
*497 FILLER_16_165
*498 FILLER_16_173
*499 FILLER_16_179
*500 FILLER_16_188
*501 FILLER_16_192
*502 FILLER_16_3
*503 FILLER_16_32
*504 FILLER_16_44
*505 FILLER_16_56
*506 FILLER_16_7
*507 FILLER_16_88
*508 FILLER_17_110
*509 FILLER_17_133
*510 FILLER_17_141
*511 FILLER_17_153
*512 FILLER_17_158
*513 FILLER_17_166
*514 FILLER_17_169
*515 FILLER_17_181
*516 FILLER_17_187
*517 FILLER_17_20
*518 FILLER_17_3
*519 FILLER_17_32
*520 FILLER_17_38
*521 FILLER_17_42
*522 FILLER_17_51
*523 FILLER_17_55
*524 FILLER_17_57
*525 FILLER_17_61
*526 FILLER_17_69
*527 FILLER_17_81
*528 FILLER_17_89
*529 FILLER_18_104
*530 FILLER_18_116
*531 FILLER_18_122
*532 FILLER_18_135
*533 FILLER_18_139
*534 FILLER_18_141
*535 FILLER_18_170
*536 FILLER_18_18
*537 FILLER_18_25
*538 FILLER_18_29
*539 FILLER_18_3
*540 FILLER_18_64
*541 FILLER_18_76
*542 FILLER_18_85
*543 FILLER_18_97
*544 FILLER_19_107
*545 FILLER_19_111
*546 FILLER_19_113
*547 FILLER_19_125
*548 FILLER_19_137
*549 FILLER_19_149
*550 FILLER_19_155
*551 FILLER_19_162
*552 FILLER_19_179
*553 FILLER_19_191
*554 FILLER_19_3
*555 FILLER_19_31
*556 FILLER_19_43
*557 FILLER_19_55
*558 FILLER_19_84
*559 FILLER_19_96
*560 FILLER_1_105
*561 FILLER_1_111
*562 FILLER_1_113
*563 FILLER_1_125
*564 FILLER_1_137
*565 FILLER_1_149
*566 FILLER_1_15
*567 FILLER_1_161
*568 FILLER_1_167
*569 FILLER_1_169
*570 FILLER_1_181
*571 FILLER_1_27
*572 FILLER_1_3
*573 FILLER_1_39
*574 FILLER_1_51
*575 FILLER_1_55
*576 FILLER_1_57
*577 FILLER_1_69
*578 FILLER_1_81
*579 FILLER_1_93
*580 FILLER_20_114
*581 FILLER_20_138
*582 FILLER_20_141
*583 FILLER_20_15
*584 FILLER_20_155
*585 FILLER_20_167
*586 FILLER_20_178
*587 FILLER_20_186
*588 FILLER_20_19
*589 FILLER_20_192
*590 FILLER_20_27
*591 FILLER_20_29
*592 FILLER_20_3
*593 FILLER_20_41
*594 FILLER_20_49
*595 FILLER_20_61
*596 FILLER_20_67
*597 FILLER_20_71
*598 FILLER_20_80
*599 FILLER_20_85
*600 FILLER_21_106
*601 FILLER_21_113
*602 FILLER_21_125
*603 FILLER_21_133
*604 FILLER_21_15
*605 FILLER_21_162
*606 FILLER_21_189
*607 FILLER_21_27
*608 FILLER_21_3
*609 FILLER_21_57
*610 FILLER_21_69
*611 FILLER_21_81
*612 FILLER_21_93
*613 FILLER_22_100
*614 FILLER_22_112
*615 FILLER_22_126
*616 FILLER_22_138
*617 FILLER_22_141
*618 FILLER_22_148
*619 FILLER_22_160
*620 FILLER_22_175
*621 FILLER_22_186
*622 FILLER_22_192
*623 FILLER_22_3
*624 FILLER_22_32
*625 FILLER_22_48
*626 FILLER_22_60
*627 FILLER_22_7
*628 FILLER_22_88
*629 FILLER_23_104
*630 FILLER_23_113
*631 FILLER_23_119
*632 FILLER_23_132
*633 FILLER_23_140
*634 FILLER_23_149
*635 FILLER_23_15
*636 FILLER_23_161
*637 FILLER_23_167
*638 FILLER_23_169
*639 FILLER_23_27
*640 FILLER_23_3
*641 FILLER_23_35
*642 FILLER_23_40
*643 FILLER_23_52
*644 FILLER_23_57
*645 FILLER_23_71
*646 FILLER_23_83
*647 FILLER_23_99
*648 FILLER_24_11
*649 FILLER_24_137
*650 FILLER_24_141
*651 FILLER_24_166
*652 FILLER_24_178
*653 FILLER_24_190
*654 FILLER_24_25
*655 FILLER_24_29
*656 FILLER_24_3
*657 FILLER_24_61
*658 FILLER_24_79
*659 FILLER_24_83
*660 FILLER_24_85
*661 FILLER_24_89
*662 FILLER_25_108
*663 FILLER_25_113
*664 FILLER_25_119
*665 FILLER_25_123
*666 FILLER_25_135
*667 FILLER_25_143
*668 FILLER_25_147
*669 FILLER_25_159
*670 FILLER_25_167
*671 FILLER_25_169
*672 FILLER_25_180
*673 FILLER_25_188
*674 FILLER_25_192
*675 FILLER_25_3
*676 FILLER_25_32
*677 FILLER_25_44
*678 FILLER_25_84
*679 FILLER_25_96
*680 FILLER_26_105
*681 FILLER_26_117
*682 FILLER_26_125
*683 FILLER_26_130
*684 FILLER_26_138
*685 FILLER_26_141
*686 FILLER_26_15
*687 FILLER_26_150
*688 FILLER_26_156
*689 FILLER_26_192
*690 FILLER_26_20
*691 FILLER_26_29
*692 FILLER_26_3
*693 FILLER_26_41
*694 FILLER_26_53
*695 FILLER_26_65
*696 FILLER_26_70
*697 FILLER_26_82
*698 FILLER_26_85
*699 FILLER_26_97
*700 FILLER_27_111
*701 FILLER_27_113
*702 FILLER_27_163
*703 FILLER_27_167
*704 FILLER_27_169
*705 FILLER_27_174
*706 FILLER_27_18
*707 FILLER_27_181
*708 FILLER_27_22
*709 FILLER_27_34
*710 FILLER_27_44
*711 FILLER_27_53
*712 FILLER_27_57
*713 FILLER_27_6
*714 FILLER_27_69
*715 FILLER_27_78
*716 FILLER_28_107
*717 FILLER_28_119
*718 FILLER_28_131
*719 FILLER_28_139
*720 FILLER_28_141
*721 FILLER_28_149
*722 FILLER_28_161
*723 FILLER_28_173
*724 FILLER_28_185
*725 FILLER_28_27
*726 FILLER_28_29
*727 FILLER_28_3
*728 FILLER_28_57
*729 FILLER_28_83
*730 FILLER_28_85
*731 FILLER_29_102
*732 FILLER_29_110
*733 FILLER_29_113
*734 FILLER_29_117
*735 FILLER_29_125
*736 FILLER_29_137
*737 FILLER_29_145
*738 FILLER_29_151
*739 FILLER_29_163
*740 FILLER_29_167
*741 FILLER_29_169
*742 FILLER_29_17
*743 FILLER_29_29
*744 FILLER_29_41
*745 FILLER_29_53
*746 FILLER_29_57
*747 FILLER_29_66
*748 FILLER_29_78
*749 FILLER_29_90
*750 FILLER_2_109
*751 FILLER_2_121
*752 FILLER_2_133
*753 FILLER_2_139
*754 FILLER_2_141
*755 FILLER_2_15
*756 FILLER_2_153
*757 FILLER_2_165
*758 FILLER_2_177
*759 FILLER_2_189
*760 FILLER_2_27
*761 FILLER_2_29
*762 FILLER_2_3
*763 FILLER_2_41
*764 FILLER_2_53
*765 FILLER_2_65
*766 FILLER_2_77
*767 FILLER_2_83
*768 FILLER_2_85
*769 FILLER_2_97
*770 FILLER_30_101
*771 FILLER_30_106
*772 FILLER_30_114
*773 FILLER_30_135
*774 FILLER_30_139
*775 FILLER_30_154
*776 FILLER_30_185
*777 FILLER_30_189
*778 FILLER_30_20
*779 FILLER_30_26
*780 FILLER_30_29
*781 FILLER_30_3
*782 FILLER_30_42
*783 FILLER_30_54
*784 FILLER_30_65
*785 FILLER_30_76
*786 FILLER_30_90
*787 FILLER_31_138
*788 FILLER_31_161
*789 FILLER_31_167
*790 FILLER_31_169
*791 FILLER_31_184
*792 FILLER_31_192
*793 FILLER_31_3
*794 FILLER_31_32
*795 FILLER_31_60
*796 FILLER_31_88
*797 FILLER_32_104
*798 FILLER_32_110
*799 FILLER_32_116
*800 FILLER_32_122
*801 FILLER_32_128
*802 FILLER_32_134
*803 FILLER_32_14
*804 FILLER_32_141
*805 FILLER_32_146
*806 FILLER_32_152
*807 FILLER_32_158
*808 FILLER_32_164
*809 FILLER_32_172
*810 FILLER_32_176
*811 FILLER_32_182
*812 FILLER_32_188
*813 FILLER_32_26
*814 FILLER_32_3
*815 FILLER_32_32
*816 FILLER_32_38
*817 FILLER_32_44
*818 FILLER_32_50
*819 FILLER_32_57
*820 FILLER_32_62
*821 FILLER_32_68
*822 FILLER_32_75
*823 FILLER_32_8
*824 FILLER_32_83
*825 FILLER_32_88
*826 FILLER_32_92
*827 FILLER_32_98
*828 FILLER_3_105
*829 FILLER_3_111
*830 FILLER_3_113
*831 FILLER_3_125
*832 FILLER_3_137
*833 FILLER_3_149
*834 FILLER_3_15
*835 FILLER_3_161
*836 FILLER_3_167
*837 FILLER_3_169
*838 FILLER_3_181
*839 FILLER_3_27
*840 FILLER_3_3
*841 FILLER_3_39
*842 FILLER_3_51
*843 FILLER_3_55
*844 FILLER_3_57
*845 FILLER_3_69
*846 FILLER_3_81
*847 FILLER_3_93
*848 FILLER_4_109
*849 FILLER_4_12
*850 FILLER_4_121
*851 FILLER_4_133
*852 FILLER_4_139
*853 FILLER_4_141
*854 FILLER_4_151
*855 FILLER_4_155
*856 FILLER_4_176
*857 FILLER_4_188
*858 FILLER_4_192
*859 FILLER_4_24
*860 FILLER_4_29
*861 FILLER_4_41
*862 FILLER_4_53
*863 FILLER_4_65
*864 FILLER_4_77
*865 FILLER_4_83
*866 FILLER_4_85
*867 FILLER_4_97
*868 FILLER_5_100
*869 FILLER_5_106
*870 FILLER_5_113
*871 FILLER_5_125
*872 FILLER_5_151
*873 FILLER_5_160
*874 FILLER_5_184
*875 FILLER_5_189
*876 FILLER_5_3
*877 FILLER_5_32
*878 FILLER_5_40
*879 FILLER_5_51
*880 FILLER_5_55
*881 FILLER_5_57
*882 FILLER_5_88
*883 FILLER_6_112
*884 FILLER_6_118
*885 FILLER_6_122
*886 FILLER_6_134
*887 FILLER_6_14
*888 FILLER_6_141
*889 FILLER_6_151
*890 FILLER_6_167
*891 FILLER_6_26
*892 FILLER_6_29
*893 FILLER_6_3
*894 FILLER_6_56
*895 FILLER_6_67
*896 FILLER_6_75
*897 FILLER_6_83
*898 FILLER_7_105
*899 FILLER_7_111
*900 FILLER_7_133
*901 FILLER_7_137
*902 FILLER_7_147
*903 FILLER_7_15
*904 FILLER_7_159
*905 FILLER_7_167
*906 FILLER_7_169
*907 FILLER_7_181
*908 FILLER_7_26
*909 FILLER_7_3
*910 FILLER_7_38
*911 FILLER_7_48
*912 FILLER_7_57
*913 FILLER_7_61
*914 FILLER_7_7
*915 FILLER_7_72
*916 FILLER_7_84
*917 FILLER_7_92
*918 FILLER_8_109
*919 FILLER_8_117
*920 FILLER_8_141
*921 FILLER_8_155
*922 FILLER_8_167
*923 FILLER_8_177
*924 FILLER_8_189
*925 FILLER_8_27
*926 FILLER_8_3
*927 FILLER_8_34
*928 FILLER_8_46
*929 FILLER_8_54
*930 FILLER_8_83
*931 FILLER_8_85
*932 FILLER_8_97
*933 FILLER_9_101
*934 FILLER_9_109
*935 FILLER_9_120
*936 FILLER_9_132
*937 FILLER_9_144
*938 FILLER_9_156
*939 FILLER_9_179
*940 FILLER_9_191
*941 FILLER_9_3
*942 FILLER_9_35
*943 FILLER_9_44
*944 FILLER_9_51
*945 FILLER_9_55
*946 FILLER_9_57
*947 FILLER_9_65
*948 FILLER_9_69
*949 FILLER_9_78
*950 FILLER_9_90
*951 PHY_0
*952 PHY_1
*953 PHY_10
*954 PHY_11
*955 PHY_12
*956 PHY_13
*957 PHY_14
*958 PHY_15
*959 PHY_16
*960 PHY_17
*961 PHY_18
*962 PHY_19
*963 PHY_2
*964 PHY_20
*965 PHY_21
*966 PHY_22
*967 PHY_23
*968 PHY_24
*969 PHY_25
*970 PHY_26
*971 PHY_27
*972 PHY_28
*973 PHY_29
*974 PHY_3
*975 PHY_30
*976 PHY_31
*977 PHY_32
*978 PHY_33
*979 PHY_34
*980 PHY_35
*981 PHY_36
*982 PHY_37
*983 PHY_38
*984 PHY_39
*985 PHY_4
*986 PHY_40
*987 PHY_41
*988 PHY_42
*989 PHY_43
*990 PHY_44
*991 PHY_45
*992 PHY_46
*993 PHY_47
*994 PHY_48
*995 PHY_49
*996 PHY_5
*997 PHY_50
*998 PHY_51
*999 PHY_52
*1000 PHY_53
*1001 PHY_54
*1002 PHY_55
*1003 PHY_56
*1004 PHY_57
*1005 PHY_58
*1006 PHY_59
*1007 PHY_6
*1008 PHY_60
*1009 PHY_61
*1010 PHY_62
*1011 PHY_63
*1012 PHY_64
*1013 PHY_65
*1014 PHY_7
*1015 PHY_8
*1016 PHY_9
*1017 TAP_100
*1018 TAP_101
*1019 TAP_102
*1020 TAP_103
*1021 TAP_104
*1022 TAP_105
*1023 TAP_106
*1024 TAP_107
*1025 TAP_108
*1026 TAP_109
*1027 TAP_110
*1028 TAP_111
*1029 TAP_112
*1030 TAP_113
*1031 TAP_114
*1032 TAP_115
*1033 TAP_116
*1034 TAP_117
*1035 TAP_118
*1036 TAP_119
*1037 TAP_120
*1038 TAP_121
*1039 TAP_122
*1040 TAP_123
*1041 TAP_124
*1042 TAP_125
*1043 TAP_126
*1044 TAP_127
*1045 TAP_128
*1046 TAP_129
*1047 TAP_130
*1048 TAP_131
*1049 TAP_132
*1050 TAP_133
*1051 TAP_134
*1052 TAP_135
*1053 TAP_136
*1054 TAP_137
*1055 TAP_138
*1056 TAP_139
*1057 TAP_140
*1058 TAP_141
*1059 TAP_142
*1060 TAP_143
*1061 TAP_144
*1062 TAP_145
*1063 TAP_146
*1064 TAP_147
*1065 TAP_148
*1066 TAP_149
*1067 TAP_150
*1068 TAP_151
*1069 TAP_152
*1070 TAP_153
*1071 TAP_154
*1072 TAP_155
*1073 TAP_156
*1074 TAP_157
*1075 TAP_158
*1076 TAP_159
*1077 TAP_160
*1078 TAP_161
*1079 TAP_162
*1080 TAP_163
*1081 TAP_164
*1082 TAP_165
*1083 TAP_166
*1084 TAP_167
*1085 TAP_168
*1086 TAP_169
*1087 TAP_170
*1088 TAP_66
*1089 TAP_67
*1090 TAP_68
*1091 TAP_69
*1092 TAP_70
*1093 TAP_71
*1094 TAP_72
*1095 TAP_73
*1096 TAP_74
*1097 TAP_75
*1098 TAP_76
*1099 TAP_77
*1100 TAP_78
*1101 TAP_79
*1102 TAP_80
*1103 TAP_81
*1104 TAP_82
*1105 TAP_83
*1106 TAP_84
*1107 TAP_85
*1108 TAP_86
*1109 TAP_87
*1110 TAP_88
*1111 TAP_89
*1112 TAP_90
*1113 TAP_91
*1114 TAP_92
*1115 TAP_93
*1116 TAP_94
*1117 TAP_95
*1118 TAP_96
*1119 TAP_97
*1120 TAP_98
*1121 TAP_99
*1122 _192_
*1123 _193_
*1124 _194_
*1125 _195_
*1126 _196_
*1127 _197_
*1128 _198_
*1129 _199_
*1130 _200_
*1131 _201_
*1132 _202_
*1133 _203_
*1134 _204_
*1135 _205_
*1136 _206_
*1137 _207_
*1138 _208_
*1139 _209_
*1140 _210_
*1141 _211_
*1142 _212_
*1143 _213_
*1144 _214_
*1145 _215_
*1146 _216_
*1147 _217_
*1148 _218_
*1149 _219_
*1150 _220_
*1151 _221_
*1152 _222_
*1153 _223_
*1154 _224_
*1155 _225_
*1156 _226_
*1157 _227_
*1158 _228_
*1159 _229_
*1160 _230_
*1161 _231_
*1162 _232_
*1163 _233_
*1164 _234_
*1165 _235_
*1166 _236_
*1167 _237_
*1168 _238_
*1169 _239_
*1170 _240_
*1171 _241_
*1172 _242_
*1173 _243_
*1174 _244_
*1175 _245_
*1176 _246_
*1177 _247_
*1178 _248_
*1179 _249_
*1180 _250_
*1181 _251_
*1182 _252_
*1183 _253_
*1184 _254_
*1185 _255_
*1186 _256_
*1187 _257_
*1188 _258_
*1189 _259_
*1190 _260_
*1191 _261_
*1192 _262_
*1193 _263_
*1194 _264_
*1195 _265_
*1196 _266_
*1197 _267_
*1198 _268_
*1199 _269_
*1200 _270_
*1201 _271_
*1202 _272_
*1203 _273_
*1204 _274_
*1205 _275_
*1206 _276_
*1207 _277_
*1208 _278_
*1209 _279_
*1210 _280_
*1211 _281_
*1212 _282_
*1213 _283_
*1214 _284_
*1215 _285_
*1216 _286_
*1217 _287_
*1218 _288_
*1219 _289_
*1220 _290_
*1221 _291_
*1222 _292_
*1223 _293_
*1224 _294_
*1225 _295_
*1226 _296_
*1227 _297_
*1228 _298_
*1229 _299_
*1230 _300_
*1231 _301_
*1232 _302_
*1233 _303_
*1234 _304_
*1235 _305_
*1236 _306_
*1237 _307_
*1238 _308_
*1239 _309_
*1240 _310_
*1241 _311_
*1242 _312_
*1243 _313_
*1244 _314_
*1245 _315_
*1246 _316_
*1247 _317_
*1248 _318_
*1249 _319_
*1250 _320_
*1251 _321_
*1252 _322_
*1253 _323_
*1254 _324_
*1255 _325_
*1256 _326_
*1257 _327_
*1258 _328_
*1259 _329_
*1260 _330_
*1261 _331_
*1262 _332_
*1263 _333_
*1264 _334_
*1265 _335_
*1266 _336_
*1267 _337_
*1268 _338_
*1269 _339_
*1270 _340_
*1271 _341_
*1272 _342_
*1273 _343_
*1274 _344_
*1275 _345_
*1276 _346_
*1277 _347_
*1278 _348_
*1279 _349_
*1280 _350_
*1281 _351_
*1282 _352_
*1283 _353_
*1284 _354_
*1285 _355_
*1286 _356_
*1287 _357_
*1288 _358_
*1289 _359_
*1290 _360_
*1291 _361_
*1292 _362_
*1293 _363_
*1294 _364_
*1295 _365_
*1296 _366_
*1297 _367_
*1298 _368_
*1299 _369_
*1300 _370_
*1301 _371_
*1302 _372_
*1303 _373_
*1304 _374_
*1305 _375_
*1306 _376_
*1307 _377_
*1308 _378_
*1309 _379_
*1310 _380_
*1311 _381_
*1312 _382_
*1313 _383_
*1314 _384_
*1315 _385_
*1316 _386_
*1317 _387_
*1318 _388_
*1319 _389_
*1320 _390_
*1321 _391_
*1322 _392_
*1323 _393_
*1324 _394_
*1325 _395_
*1326 _396_
*1327 _397_
*1328 _398_
*1329 _399_
*1330 _400_
*1331 _401_
*1332 _402_
*1333 _403_
*1334 _404_
*1335 _405_
*1336 _406_
*1337 _407_
*1338 _408_
*1339 _409_
*1340 _410_
*1341 _411_
*1342 _412_
*1343 _413_
*1344 _414_
*1345 _415_
*1346 _416_
*1347 _417_
*1348 _418_
*1349 _419_
*1350 _420_
*1351 _421_
*1352 _422_
*1353 _423_
*1354 _424_
*1355 _425_
*1356 _426_
*1357 _427_
*1358 _428_
*1359 _429_
*1360 _430_
*1361 _431_
*1362 _432_
*1363 _433_
*1364 _434_
*1365 _435_
*1366 _436_
*1367 _437_
*1368 _438_
*1369 _439_
*1370 _440_
*1371 _441_
*1372 _442_
*1373 _443_
*1374 _444_
*1375 _445_
*1376 _446_
*1377 _447_
*1378 _448_
*1379 _449_
*1380 _450_
*1381 _451_
*1382 _452_
*1383 _453_
*1384 _454_
*1385 _455_
*1386 _456_
*1387 _457_
*1388 _458_
*1389 _459_
*1390 _460_
*1391 _461_
*1392 _462_
*1393 _463_
*1394 _464_
*1395 _465_
*1396 _466_
*1397 _467_
*1398 _468_
*1399 _469_
*1400 _470_
*1401 _471_
*1402 _472_
*1403 _473_
*1404 _474_
*1405 _475_
*1406 _476_
*1407 _477_
*1408 _478_
*1409 fanout36
*1410 fanout37
*1411 fanout38
*1412 fanout39
*1413 fanout40
*1414 fanout41
*1415 fanout42
*1416 fanout43
*1417 fanout44
*1418 fanout45
*1419 fanout46
*1420 fanout47
*1421 fanout48
*1422 fanout49
*1423 fanout50
*1424 fanout51
*1425 fanout52
*1426 input1
*1427 input10
*1428 input11
*1429 input12
*1430 input13
*1431 input14
*1432 input15
*1433 input16
*1434 input17
*1435 input18
*1436 input19
*1437 input2
*1438 input20
*1439 input21
*1440 input22
*1441 input23
*1442 input24
*1443 input25
*1444 input26
*1445 input27
*1446 input28
*1447 input29
*1448 input3
*1449 input30
*1450 input31
*1451 input32
*1452 input33
*1453 input34
*1454 input4
*1455 input5
*1456 input6
*1457 input7
*1458 input8
*1459 input9
*1460 output35

*PORTS
clk I
p O
rst I
x[0] I
x[10] I
x[11] I
x[12] I
x[13] I
x[14] I
x[15] I
x[16] I
x[17] I
x[18] I
x[19] I
x[1] I
x[20] I
x[21] I
x[22] I
x[23] I
x[24] I
x[25] I
x[26] I
x[27] I
x[28] I
x[29] I
x[2] I
x[30] I
x[31] I
x[3] I
x[4] I
x[5] I
x[6] I
x[7] I
x[8] I
x[9] I
y I

*D_NET *3 0.0753626
*CONN
*P clk I
*I *1408:CLK I *D sky130_fd_sc_hd__dfrtp_1
*I *1407:CLK I *D sky130_fd_sc_hd__dfrtp_1
*I *1392:CLK I *D sky130_fd_sc_hd__dfrtp_1
*I *1347:CLK I *D sky130_fd_sc_hd__dfrtp_1
*I *1348:CLK I *D sky130_fd_sc_hd__dfrtp_1
*I *1391:CLK I *D sky130_fd_sc_hd__dfrtp_1
*I *1390:CLK I *D sky130_fd_sc_hd__dfrtp_1
*I *1389:CLK I *D sky130_fd_sc_hd__dfrtp_1
*I *1376:CLK I *D sky130_fd_sc_hd__dfrtp_1
*I *1394:CLK I *D sky130_fd_sc_hd__dfrtp_1
*I *1405:CLK I *D sky130_fd_sc_hd__dfrtp_1
*I *1396:CLK I *D sky130_fd_sc_hd__dfrtp_1
*I *1395:CLK I *D sky130_fd_sc_hd__dfrtp_1
*I *1386:CLK I *D sky130_fd_sc_hd__dfrtp_1
*I *1387:CLK I *D sky130_fd_sc_hd__dfrtp_1
*I *1393:CLK I *D sky130_fd_sc_hd__dfrtp_1
*I *1388:CLK I *D sky130_fd_sc_hd__dfrtp_1
*I *1385:CLK I *D sky130_fd_sc_hd__dfrtp_1
*I *1380:CLK I *D sky130_fd_sc_hd__dfrtp_1
*I *1377:CLK I *D sky130_fd_sc_hd__dfrtp_1
*I *1372:CLK I *D sky130_fd_sc_hd__dfrtp_1
*I *1379:CLK I *D sky130_fd_sc_hd__dfrtp_1
*I *1383:CLK I *D sky130_fd_sc_hd__dfrtp_1
*I *1384:CLK I *D sky130_fd_sc_hd__dfrtp_1
*I *1400:CLK I *D sky130_fd_sc_hd__dfrtp_1
*I *1402:CLK I *D sky130_fd_sc_hd__dfrtp_1
*I *1399:CLK I *D sky130_fd_sc_hd__dfrtp_1
*I *1397:CLK I *D sky130_fd_sc_hd__dfrtp_1
*I *1368:CLK I *D sky130_fd_sc_hd__dfrtp_1
*I *1365:CLK I *D sky130_fd_sc_hd__dfrtp_1
*I *1367:CLK I *D sky130_fd_sc_hd__dfrtp_1
*I *1361:CLK I *D sky130_fd_sc_hd__dfrtp_1
*I *1352:CLK I *D sky130_fd_sc_hd__dfrtp_1
*I *1369:CLK I *D sky130_fd_sc_hd__dfrtp_1
*I *1370:CLK I *D sky130_fd_sc_hd__dfrtp_1
*I *1362:CLK I *D sky130_fd_sc_hd__dfrtp_1
*I *1355:CLK I *D sky130_fd_sc_hd__dfrtp_1
*I *1357:CLK I *D sky130_fd_sc_hd__dfrtp_1
*I *1356:CLK I *D sky130_fd_sc_hd__dfrtp_1
*I *1353:CLK I *D sky130_fd_sc_hd__dfrtp_1
*I *1373:CLK I *D sky130_fd_sc_hd__dfrtp_1
*I *1358:CLK I *D sky130_fd_sc_hd__dfrtp_1
*I *1375:CLK I *D sky130_fd_sc_hd__dfrtp_1
*I *1378:CLK I *D sky130_fd_sc_hd__dfrtp_1
*I *1374:CLK I *D sky130_fd_sc_hd__dfrtp_1
*I *1371:CLK I *D sky130_fd_sc_hd__dfrtp_1
*I *1360:CLK I *D sky130_fd_sc_hd__dfrtp_1
*I *1354:CLK I *D sky130_fd_sc_hd__dfrtp_1
*I *1359:CLK I *D sky130_fd_sc_hd__dfrtp_1
*I *1351:CLK I *D sky130_fd_sc_hd__dfrtp_1
*I *1364:CLK I *D sky130_fd_sc_hd__dfrtp_1
*I *1363:CLK I *D sky130_fd_sc_hd__dfrtp_1
*I *1345:CLK I *D sky130_fd_sc_hd__dfrtp_1
*I *1349:CLK I *D sky130_fd_sc_hd__dfrtp_1
*I *1350:CLK I *D sky130_fd_sc_hd__dfrtp_1
*I *1346:CLK I *D sky130_fd_sc_hd__dfrtp_1
*I *1381:CLK I *D sky130_fd_sc_hd__dfrtp_1
*I *1366:CLK I *D sky130_fd_sc_hd__dfrtp_1
*I *1382:CLK I *D sky130_fd_sc_hd__dfrtp_1
*I *1398:CLK I *D sky130_fd_sc_hd__dfrtp_1
*I *1406:CLK I *D sky130_fd_sc_hd__dfrtp_1
*I *1404:CLK I *D sky130_fd_sc_hd__dfrtp_1
*I *1401:CLK I *D sky130_fd_sc_hd__dfrtp_1
*I *1403:CLK I *D sky130_fd_sc_hd__dfrtp_1
*CAP
1 clk 0.000794593
2 *1408:CLK 1.55137e-05
3 *1407:CLK 0
4 *1392:CLK 8.16449e-05
5 *1347:CLK 0
6 *1348:CLK 0.000210343
7 *1391:CLK 0
8 *1390:CLK 2.08101e-05
9 *1389:CLK 0
10 *1376:CLK 5.66458e-05
11 *1394:CLK 0.000565876
12 *1405:CLK 3.37454e-05
13 *1396:CLK 0
14 *1395:CLK 0
15 *1386:CLK 0
16 *1387:CLK 0.000383791
17 *1393:CLK 0.000509431
18 *1388:CLK 3.37454e-05
19 *1385:CLK 0
20 *1380:CLK 0
21 *1377:CLK 4.71799e-05
22 *1372:CLK 0.000738176
23 *1379:CLK 0
24 *1383:CLK 0
25 *1384:CLK 6.61259e-05
26 *1400:CLK 3.37454e-05
27 *1402:CLK 0.000645326
28 *1399:CLK 0
29 *1397:CLK 0
30 *1368:CLK 0
31 *1365:CLK 0
32 *1367:CLK 0.00045869
33 *1361:CLK 0
34 *1352:CLK 0
35 *1369:CLK 8.03384e-05
36 *1370:CLK 0.000405275
37 *1362:CLK 0
38 *1355:CLK 0.000196892
39 *1357:CLK 0.000591252
40 *1356:CLK 0
41 *1353:CLK 0
42 *1373:CLK 0.000113632
43 *1358:CLK 3.58957e-05
44 *1375:CLK 0
45 *1378:CLK 0.00047973
46 *1374:CLK 0
47 *1371:CLK 0
48 *1360:CLK 0
49 *1354:CLK 7.95201e-05
50 *1359:CLK 0.00063967
51 *1351:CLK 0
52 *1364:CLK 9.27438e-05
53 *1363:CLK 0.000256938
54 *1345:CLK 0
55 *1349:CLK 0.000433443
56 *1350:CLK 0.000270054
57 *1346:CLK 0.00048848
58 *1381:CLK 0.000398984
59 *1366:CLK 0.000111546
60 *1382:CLK 0.000124718
61 *1398:CLK 0.000351927
62 *1406:CLK 0
63 *1404:CLK 0
64 *1401:CLK 0.000469155
65 *1403:CLK 0.000168974
66 *3:741 0.000173924
67 *3:730 0.00044075
68 *3:704 0.000549876
69 *3:696 0.00105247
70 *3:684 0.0013294
71 *3:678 0.00107113
72 *3:668 0.000306508
73 *3:655 0.00084275
74 *3:649 0.000328529
75 *3:636 0.000456007
76 *3:597 0.000979294
77 *3:586 0.000485268
78 *3:542 0.00113289
79 *3:482 0.00133837
80 *3:476 0.00101631
81 *3:474 0.000621871
82 *3:463 0.000739744
83 *3:455 0.00114916
84 *3:406 0.000880718
85 *3:397 0.000806468
86 *3:372 0.000647884
87 *3:368 0.000518477
88 *3:359 0.000346687
89 *3:339 0.000409964
90 *3:317 0.00118425
91 *3:304 0.000862
92 *3:300 0.000557535
93 *3:291 0.000612065
94 *3:278 0.00123471
95 *3:272 0.00097262
96 *3:261 0.000308618
97 *3:250 0.000919213
98 *3:237 0.000364661
99 *3:231 0.000871735
100 *3:225 0.00103305
101 *3:215 0.000832425
102 *3:213 0.00104265
103 *3:200 0.000816121
104 *3:187 0.00047052
105 *3:162 0.000823176
106 *3:149 0.000608158
107 *3:147 0.000635994
108 *3:145 0.00116401
109 *3:143 0.000739636
110 *3:121 0.000719361
111 *3:119 0.000701128
112 *3:113 0.000695745
113 *3:111 0.00109071
114 *3:98 0.000375159
115 *3:96 0.000616853
116 *3:94 0.000818163
117 *3:90 0.00059034
118 *3:88 0.000486127
119 *3:86 0.000782292
120 *3:80 0.000942346
121 *3:78 0.000525504
122 *3:67 0.000812619
123 *3:61 0.00100534
124 *3:57 0.000911951
125 *3:48 0.000393357
126 *3:26 0.000770926
127 *3:24 0.000549469
128 *3:13 0.000963566
129 *1346:CLK p 0
130 *1346:CLK *1125:B 0
131 *1346:CLK *1126:B 0
132 *1346:CLK *1345:D 3.89528e-05
133 *1346:CLK *1346:D 0
134 *1346:CLK *335:14 0
135 *1348:CLK *359:96 0.000252319
136 *1349:CLK *1135:A 0
137 *1349:CLK *1135:B 0
138 *1349:CLK *1349:D 4.91189e-05
139 *1349:CLK *328:10 0.000187766
140 *1349:CLK *335:14 0
141 *1355:CLK *1150:B 0.000210151
142 *1355:CLK *1355:D 4.91189e-05
143 *1355:CLK *328:10 0.000306551
144 *1355:CLK *335:12 0
145 *1355:CLK *361:16 2.03321e-05
146 *1358:CLK *1358:RESET_B 4.47125e-05
147 *1363:CLK *1122:B 0.000176226
148 *1363:CLK *1170:B 0
149 *1363:CLK *1363:D 0.000125536
150 *1363:CLK *162:10 0
151 *1363:CLK *233:10 4.24562e-05
152 *1363:CLK *362:37 0
153 *1364:CLK *1364:D 4.82919e-05
154 *1366:CLK *1175:A 1.01661e-05
155 *1366:CLK *1175:B 5.53249e-06
156 *1366:CLK *1366:D 3.59997e-05
157 *1367:CLK *1361:D 1.91597e-05
158 *1367:CLK *1361:RESET_B 0.000107059
159 *1369:CLK *315:10 0
160 *1369:CLK *349:12 0
161 *1369:CLK *364:23 0.000133921
162 *1370:CLK *1298:A 5.72091e-05
163 *1370:CLK *349:12 0
164 *1370:CLK *350:10 0
165 *1370:CLK *364:23 1.82476e-05
166 *1372:CLK *1182:B 0.000111901
167 *1372:CLK *1305:A 0.000132415
168 *1372:CLK *355:44 0
169 *1372:CLK *357:12 0.000120618
170 *1373:CLK *1294:A 4.82919e-05
171 *1373:CLK *1358:RESET_B 4.99619e-05
172 *1377:CLK *1305:A 7.35813e-05
173 *1378:CLK *1187:B 0
174 *1378:CLK *180:10 0
175 *1378:CLK *243:8 0
176 *1378:CLK *365:36 0
177 *1381:CLK *1366:D 3.45588e-05
178 *1381:CLK *362:12 0.000119631
179 *1381:CLK *371:25 4.85494e-05
180 *1382:CLK *236:12 0.000118527